-------------------------------------------------------
          Amber 14 SANDER                              2014
          -------------------------------------------------------

  [-O]verwriting output

File Assignments:

 Here is the input file:

step-6_no_restraint_nvt
 &cntrl
  imin   = 0,
  irest  = 0,
  ntx    = 1,
  ntb    = 2, pres0 = 1.0, ntp = 1,
  taup   = 2.0,
  ntc    = 1,
  ntf    = 1,
  cut    = 10,
  ntr    = 0,
  tempi  = 300.0,
  temp0  = 300.0,
  ntt    = 1,
  tautp = 1.0,
  nstlim = 100000, dt = 0.001
  ntpr = 100, ntwx =100, ntwr =100
 /

--------------------------------------------------------------------------------
   1.  RESOURCE   USE:
--------------------------------------------------------------------------------

 getting new box info from bottom of inpcrd

 NATOM  =    2427 NTYPES =       2 NBONH =    1618 MBONA  =       0
 NTHETH =     809 MTHETA =       0 NPHIH =       0 MPHIA  =       0
 NHPARM =       0 NPARM  =       0 NNB   =    3236 NRES   =     809
 NBONA  =       0 NTHETA =       0 NPHIA =       0 NUMBND =       1
 NUMANG =       1 NPTRA  =       0 NATYP =       2 NPHB   =       0
 IFBOX  =       1 NMXRS  =       3 IFCAP =       0 NEXTRA =       0
 NCOPY  =       0

     BOX TYPE: RECTILINEAR

--------------------------------------------------------------------------------
   2.  CONTROL  DATA  FOR  THE  RUN
--------------------------------------------------------------------------------

WAT

General flags:
     imin    =       0, nmropt  =       0

Nature and format of input:
     ntx     =       1, irest   =       0, ntrx    =       1

Nature and format of output:
     ntxo    =       1, ntpr    =     100, ntrx    =       1, ntwr    =     100
     iwrap   =       0, ntwx    =     100, ntwv    =       0, ntwe    =       0
     ioutfm  =       0, ntwprt  =       0, idecomp =       0, rbornstat=      0

Potential function:
     ntf     =       1, ntb     =       2, igb     =       0, nsnb    =      25
     ipol    =       0, gbsa    =       0, iesp    =       0
     dielc   =   1.00000, cut     =  10.00000, intdiel =   1.00000

Frozen or restrained atoms:
     ibelly  =       0, ntr     =       0

Molecular dynamics:
     nstlim  =    100000, nscm    =      1000, nrespa  =         1
     t       =   0.00000, dt      =   0.00100, vlimit  =  20.00000

Berendsen (weak-coupling) temperature regulation:
     temp0   = 300.00000, tempi   = 300.00000, tautp   =   1.00000

Pressure regulation:
     ntp     =       1
     pres0   =   1.00000, comp    =  44.60000, taup    =   2.00000

Ewald parameters:
     verbose =       0, ew_type =       0, nbflag  =       1, use_pme =       1
     vdwmeth =       1, eedmeth =       1, netfrc  =       1
     Box X =   33.061   Box Y =   34.300   Box Z =   33.191
     Alpha =   90.000   Beta  =   90.000   Gamma =   90.000
     NFFT1 =   36       NFFT2 =   36       NFFT3 =   36
     Cutoff=   10.000   Tol   =0.100E-04
     Ewald Coefficient =  0.27511
     Interpolation order =    4

--------------------------------------------------------------------------------
   3.  ATOMIC COORDINATES AND VELOCITIES
--------------------------------------------------------------------------------

WAT
 begin time read from input coords =     0.000 ps

 Number of triangulated 3-point waters found:        0

     Sum of charges from parm topology file =   0.00000000
     Forcing neutrality...

--------------------------------------------------------------------------------
   4.  RESULTS
 NSTEP =        0   TIME(PS) =       0.000  TEMP(K) =   301.05  PRESS = -2758.6
 Etot   =     -6319.1957  EKtot   =      2176.9826  EPtot      =     -8496.1783
 BOND   =        53.7267  ANGLE   =        87.2073  DIHED      =         0.0000
 1-4 NB =         0.0000  1-4 EEL =         0.0000  VDWAALS    =      1463.6777
 EELEC  =    -10100.7900  EHBOND  =         0.0000  RESTRAINT  =         0.0000
 EKCMT  =       723.7790  VIRIAL  =      2965.5510  VOLUME     =     37637.7333
                                                    Density    =         0.6430
 Ewald error estimate:   0.1533E-03
 ------------------------------------------------------------------------------

      A V E R A G E S   O V E R  100000 S T E P S

 NSTEP =   100000   TIME(PS) =     100.000  TEMP(K) =   296.24  PRESS =  -225.6
 Etot   =     -4012.1542  EKtot   =      2142.2099  EPtot      =     -6154.3641
 BOND   =      1216.5367  ANGLE   =       306.1711  DIHED      =         0.0000
 1-4 NB =         0.0000  1-4 EEL =         0.0000  VDWAALS    =      1125.5957
 EELEC  =     -8802.6675  EHBOND  =         0.0000  RESTRAINT  =         0.0000
 EKCMT  =       744.4420  VIRIAL  =       888.4605  VOLUME     =     25071.6900
                                                    Density    =         0.9862
 Ewald error estimate:   0.2193E-03
 ------------------------------------------------------------------------------

      R M S  F L U C T U A T I O N S

 NSTEP =   100000   TIME(PS) =     100.000  TEMP(K) =    15.29  PRESS =   496.5
 Etot   =       225.0860  EKtot   =       110.5613  EPtot      =       145.0757
 BOND   =        74.3848  ANGLE   =        16.9021  DIHED      =         0.0000
 1-4 NB =         0.0000  1-4 EEL =         0.0000  VDWAALS    =        56.4997
 EELEC  =       138.7196  EHBOND  =         0.0000  RESTRAINT  =         0.0000
 EKCMT  =        36.0867  VIRIAL  =       283.2034  VOLUME     =      4041.3692
                                                    Density    =         0.1303
 Ewald error estimate:   0.1676E-03
 ------------------------------------------------------------------------------
